Version 4
SHEET 1 880 680
WIRE 256 64 32 64
WIRE 32 80 32 64
WIRE 256 80 256 64
WIRE 32 208 32 160
WIRE 256 208 256 176
FLAG 32 208 0
FLAG 256 208 0
SYMBOL voltage 32 64 R0
WINDOW 123 0 0 Left 0
WINDOW 39 0 0 Left 0
WINDOW 3 -147 240 Left 2
SYMATTR InstName V1
SYMATTR Value SINE(0 1.2 1)
SYMBOL memristor1 256 128 R0
SYMATTR InstName U1
TEXT -120 272 Left 2 !.tran 0 5s 0 2m
