Version 4
SHEET 1 880 680
WIRE 96 0 96 -48
WIRE 352 32 352 -16
WIRE 464 32 464 -16
WIRE 96 144 96 96
WIRE 192 144 96 144
WIRE 96 176 96 144
WIRE 48 256 0 256
WIRE 96 304 96 272
FLAG 96 304 0
FLAG 96 -48 Vcc
IOPIN 96 -48 In
FLAG 0 256 A
IOPIN 0 256 In
FLAG 192 144 Y
IOPIN 192 144 Out
FLAG 352 32 0
FLAG 464 32 0
FLAG 352 -96 Vcc
IOPIN 352 -96 In
FLAG 464 -96 A
IOPIN 464 -96 In
SYMBOL memristor1 96 48 R0
SYMATTR InstName U2
SYMBOL nmos 48 176 R0
SYMATTR InstName M1
SYMBOL voltage 352 -112 R0
WINDOW 123 0 0 Left 0
WINDOW 39 0 0 Left 0
SYMATTR InstName V1
SYMATTR Value 12
SYMBOL voltage 464 -112 R0
WINDOW 123 0 0 Left 0
WINDOW 39 0 0 Left 0
SYMATTR InstName V2
SYMATTR Value PULSE(0 5 20m 1n 1n 20m 40m)
TEXT -74 332 Left 2 !.tran 100m
